data_genice
#
_cell_length_a                12.003395113242464
_cell_length_b                12.003395113242464
_cell_length_c                24.006790226484927
_cell_angle_alpha             90.0
_cell_angle_beta              90.0
_cell_angle_gamma             90.0

_symmetry_cell_setting        'orthorhombic'
_symmetry_space_group_name_H-M   'P 1 '

loop_
  _symmetry_equiv_pos_as_xyz
X,Y,Z

loop_
_atom_site_label
_atom_site_type_symbol
_atom_site_fract_x
_atom_site_fract_y
_atom_site_fract_z
    O0     O    0.8805    0.3122    0.0018
    H1     H    0.8590    0.2684   -0.0298
    H2     H    0.9602    0.3113    0.0012
    O3     O    0.3145   -0.0000    0.0569
    H4     H    0.2713   -0.0631    0.0682
    H5     H    0.2713    0.0631    0.0682
    O6     O    0.0000    0.2446    0.2500
    H7     H    0.0631    0.2934    0.2500
    H8     H   -0.0631    0.2934    0.2500
    O9     O    0.6778    0.3184    0.3420
   H10     H    0.7255    0.2726    0.3642
   H11     H    0.7230    0.3401    0.3110
   O12     O    0.1881    0.1817    0.0921
   H13     H    0.1609    0.2247    0.0614
   H14     H    0.1226    0.1610    0.1123
   O15     O   -0.0038    0.7500    0.2481
   H16     H   -0.0010    0.7945    0.2812
   H17     H    0.0623    0.7055    0.2495
   O18     O    0.1881    0.8183    0.0921
   H19     H    0.1226    0.8390    0.1123
   H20     H    0.1609    0.7753    0.0614
   O21     O    0.5036    0.8122    0.1902
   H22     H    0.5023    0.8113    0.2301
   H23     H    0.4404    0.7684    0.1795
   O24     O    0.6138    0.5000    0.4073
   H25     H    0.6365    0.5631    0.3857
   H26     H    0.6365    0.4369    0.3857
   O27     O    0.8119    0.1817    0.4079
   H28     H    0.8774    0.1610    0.3877
   H29     H    0.8391    0.2247    0.4386
   O30     O    0.3161    0.3222    0.1592
   H31     H    0.2715    0.2745    0.1363
   H32     H    0.3780    0.2770    0.1700
   O33     O    0.1855    0.3862    0.2500
   H34     H    0.2287    0.3635    0.2185
   H35     H    0.2287    0.3635    0.2815
   O36     O    0.3184    0.6839    0.1611
   H37     H    0.3401    0.6220    0.1385
   H38     H    0.2726    0.7285    0.1372
   O39     O    0.3184    0.3161    0.3389
   H40     H    0.2726    0.2715    0.3628
   H41     H    0.3401    0.3780    0.3615
   O42     O    0.6915   -0.0036    0.0562
   H43     H    0.6267   -0.0025    0.0794
   H44     H    0.7341    0.0595    0.0681
   O45     O    0.5000    0.1951    0.1906
   H46     H    0.5000    0.1227    0.1739
   H47     H    0.5000    0.1809    0.2298
   O48     O    0.8222    0.8161    0.0908
   H49     H    0.7745    0.7715    0.1137
   H50     H    0.7770    0.8780    0.0800
   O51     O    0.4964    0.8085    0.3062
   H52     H    0.5595    0.7659    0.3181
   H53     H    0.4975    0.8733    0.3294
   O54     O    0.8122    0.3805    0.2518
   H55     H    0.7684    0.3590    0.2202
   H56     H    0.8113    0.4602    0.2512
   O57     O    0.3145   -0.0000    0.4431
   H58     H    0.2713    0.0631    0.4318
   H59     H    0.2713   -0.0631    0.4318
   O60     O    0.5000    0.1855    0.3069
   H61     H    0.5631    0.2287    0.3182
   H62     H    0.4369    0.2287    0.3182
   O63     O    0.3159    0.6817    0.3441
   H64     H    0.2754    0.6610    0.3113
   H65     H    0.3773    0.7247    0.3304
   O66     O    0.8876    0.6915   -0.0018
   H67     H    0.8639    0.7341    0.0298
   H68     H    0.8412    0.6267   -0.0013
   O69     O    0.8183    0.8159    0.4059
   H70     H    0.8390    0.7754    0.4387
   H71     H    0.7753    0.8773    0.4196
   O72     O    0.0000    0.1188    0.1524
   H73     H    0.0000    0.0403    0.1596
   H74     H    0.0000    0.1522    0.1886
   O75     O    0.8119    0.1817    0.0921
   H76     H    0.8391    0.2247    0.0614
   H77     H    0.8774    0.1610    0.1123
   O78     O    0.8085    0.6124    0.2518
   H79     H    0.8733    0.6588    0.2513
   H80     H    0.7659    0.6361    0.2202
   O81     O    0.7500    0.5038    0.0019
   H82     H    0.7945    0.4377    0.0005
   H83     H    0.7055    0.5010   -0.0312
   O84     O    0.0000    0.8862    0.3427
   H85     H   -0.0631    0.8635    0.3643
   H86     H    0.0631    0.8635    0.3643
   O87     O    0.6778    0.6816    0.3420
   H88     H    0.7230    0.6599    0.3110
   H89     H    0.7255    0.7274    0.3642
   O90     O    0.5038    0.0038    0.1250
   H91     H    0.5010   -0.0623    0.1472
   H92     H    0.4377    0.0010    0.1028
   O93     O    0.0000    0.1188    0.3476
   H94     H    0.0000    0.1522    0.3114
   H95     H    0.0000    0.0403    0.3404
   O96     O    0.1878    0.6195    0.2518
   H97     H    0.1887    0.5398    0.2512
   H98     H    0.2316    0.6410    0.2202
   O99     O    0.3805    0.5036    0.0939
  H100     H    0.3590    0.4404    0.1158
  H101     H    0.4602    0.5023    0.0943
  O102     O    0.3805    0.4964    0.4061
  H103     H    0.3590    0.5596    0.3842
  H104     H    0.4602    0.4977    0.4057
  O105     O    0.1881    0.1817    0.4079
  H106     H    0.1226    0.1610    0.3877
  H107     H    0.1609    0.2247    0.4386
  O108     O    0.0036    0.8876    0.1542
  H109     H   -0.0595    0.8639    0.1329
  H110     H    0.0025    0.8412    0.1866
  O111     O    0.1188    0.6951    0.0000
  H112     H    0.0403    0.6809    0.0000
  H113     H    0.1522    0.6227    0.0000
  O114     O    0.1124    0.3085    0.0018
  H115     H    0.1361    0.2659   -0.0298
  H116     H    0.1588    0.3733    0.0013
  O117     O    0.6839    0.3222    0.1592
  H118     H    0.7285    0.2745    0.1363
  H119     H    0.6220    0.2770    0.1700
  O120     O    0.6881    0.6841    0.1591
  H121     H    0.6609    0.6227    0.1376
  H122     H    0.6226    0.7246    0.1695
  O123     O    0.6124    0.5036    0.0958
  H124     H    0.6361    0.4405    0.1171
  H125     H    0.6588    0.5025    0.0634
  O126     O    0.1816    0.8222    0.4080
  H127     H    0.1599    0.7770    0.4390
  H128     H    0.2274    0.7745    0.3858
  O129     O    0.5038   -0.0038    0.3750
  H130     H    0.4377   -0.0010    0.3972
  H131     H    0.5010    0.0623    0.3528
  O132     O    0.2446    0.5000    0.0000
  H133     H    0.2934    0.5000    0.0315
  H134     H    0.2934    0.5000   -0.0315
  O135     O    0.6915   -0.0036    0.4438
  H136     H    0.6267   -0.0025    0.4206
  H137     H    0.7341    0.0595    0.4319
  O138     O    0.8876    0.3085    0.4982
  H139     H    0.8412    0.3733    0.4987
  H140     H    0.8639    0.2659    0.5298
  O141     O    0.3049    0.0000    0.5594
  H142     H    0.3191    0.0000    0.5202
  H143     H    0.3773    0.0000    0.5761
  O144     O    0.0000    0.2446    0.7500
  H145     H   -0.0631    0.2934    0.7500
  H146     H    0.0631    0.2934    0.7500
  O147     O    0.6816    0.3161    0.8389
  H148     H    0.7274    0.2715    0.8628
  H149     H    0.6599    0.3780    0.8615
  O150     O    0.1817    0.1841    0.5941
  H151     H    0.1610    0.2246    0.5613
  H152     H    0.2247    0.1227    0.5804
  O153     O    0.0038    0.7500    0.7519
  H154     H    0.0010    0.7945    0.7188
  H155     H   -0.0623    0.7055    0.7505
  O156     O    0.1778    0.8161    0.5908
  H157     H    0.2255    0.7715    0.6137
  H158     H    0.2230    0.8780    0.5800
  O159     O    0.5036    0.8085    0.6938
  H160     H    0.4405    0.7659    0.6819
  H161     H    0.5025    0.8733    0.6706
  O162     O    0.6195    0.4964    0.9061
  H163     H    0.6410    0.5596    0.8842
  H164     H    0.5398    0.4977    0.9057
  O165     O    0.8159    0.1881    0.9091
  H166     H    0.7754    0.1226    0.9195
  H167     H    0.8773    0.1609    0.8876
  O168     O    0.3184    0.3161    0.6611
  H169     H    0.2726    0.2715    0.6372
  H170     H    0.3401    0.3780    0.6385
  O171     O    0.1878    0.3805    0.7518
  H172     H    0.1887    0.4602    0.7512
  H173     H    0.2316    0.3590    0.7202
  O174     O    0.3183    0.6881    0.6579
  H175     H    0.3390    0.6226    0.6377
  H176     H    0.2753    0.6609    0.6886
  O177     O    0.3159    0.3183    0.8441
  H178     H    0.3773    0.2753    0.8304
  H179     H    0.2754    0.3390    0.8113
  O180     O    0.6878    0.0036    0.5598
  H181     H    0.6887    0.0023    0.5199
  H182     H    0.7316   -0.0596    0.5705
  O183     O    0.5036    0.1878    0.6902
  H184     H    0.4404    0.2316    0.6795
  H185     H    0.5023    0.1887    0.7301
  O186     O    0.8161    0.8184    0.5889
  H187     H    0.8780    0.8401    0.6115
  H188     H    0.7715    0.7726    0.6128
  O189     O    0.5000    0.8049    0.8094
  H190     H    0.5000    0.8773    0.8261
  H191     H    0.5000    0.8191    0.7702
  O192     O    0.8145    0.3862    0.7500
  H193     H    0.7713    0.3635    0.7815
  H194     H    0.7713    0.3635    0.7185
  O195     O    0.3122   -0.0036    0.9402
  H196     H    0.2684    0.0596    0.9295
  H197     H    0.3113   -0.0023    0.9801
  O198     O    0.4964    0.1915    0.8062
  H199     H    0.5595    0.2341    0.8181
  H200     H    0.4975    0.1267    0.8294
  O201     O    0.3161    0.6778    0.8408
  H202     H    0.2715    0.7255    0.8637
  H203     H    0.3780    0.7230    0.8300
  O204     O    0.8876    0.6915    0.4982
  H205     H    0.8639    0.7341    0.5298
  H206     H    0.8412    0.6267    0.4987
  O207     O    0.8119    0.8183    0.9079
  H208     H    0.8774    0.8390    0.8877
  H209     H    0.8391    0.7753    0.9386
  O210     O   -0.0036    0.1124    0.6542
  H211     H    0.0595    0.1361    0.6329
  H212     H   -0.0025    0.1588    0.6866
  O213     O    0.8159    0.1881    0.5909
  H214     H    0.7754    0.1226    0.5805
  H215     H    0.8773    0.1609    0.6124
  O216     O    0.8122    0.6195    0.7482
  H217     H    0.7684    0.6410    0.7798
  H218     H    0.8113    0.5398    0.7488
  O219     O    0.7554    0.5000    0.5000
  H220     H    0.7066    0.5000    0.4685
  H221     H    0.7066    0.5000    0.5315
  O222     O   -0.0036    0.8876    0.8458
  H223     H   -0.0025    0.8412    0.8134
  H224     H    0.0595    0.8639    0.8671
  O225     O    0.6839    0.6778    0.8408
  H226     H    0.7285    0.7255    0.8637
  H227     H    0.6220    0.7230    0.8300
  O228     O    0.4962   -0.0038    0.6250
  H229     H    0.4990    0.0623    0.6472
  H230     H    0.5623   -0.0010    0.6028
  O231     O    0.0000    0.1188    0.8476
  H232     H    0.0000    0.0403    0.8404
  H233     H    0.0000    0.1522    0.8114
  O234     O    0.1915    0.6124    0.7482
  H235     H    0.1267    0.6588    0.7487
  H236     H    0.2341    0.6361    0.7798
  O237     O    0.3812    0.5000    0.5976
  H238     H    0.4597    0.5000    0.5904
  H239     H    0.3478    0.5000    0.5614
  O240     O    0.3862    0.5000    0.9073
  H241     H    0.3635    0.5631    0.8857
  H242     H    0.3635    0.4369    0.8857
  O243     O    0.1839    0.1816    0.9111
  H244     H    0.1220    0.1599    0.8885
  H245     H    0.2285    0.2274    0.8872
  O246     O   -0.0036    0.8805    0.6561
  H247     H    0.0596    0.8590    0.6342
  H248     H   -0.0023    0.9602    0.6557
  O249     O    0.1195    0.6878    0.4982
  H250     H    0.0398    0.6887    0.4988
  H251     H    0.1410    0.7316    0.5298
  O252     O    0.1188    0.3049    0.5000
  H253     H    0.0403    0.3191    0.5000
  H254     H    0.1522    0.3773    0.5000
  O255     O    0.6839    0.3222    0.6592
  H256     H    0.7285    0.2745    0.6363
  H257     H    0.6220    0.2770    0.6700
  O258     O    0.6841    0.6817    0.6559
  H259     H    0.7246    0.6610    0.6887
  H260     H    0.6227    0.7247    0.6696
  O261     O    0.6138    0.5000    0.5927
  H262     H    0.6365    0.4369    0.6143
  H263     H    0.6365    0.5631    0.6143
  O264     O    0.1817    0.8159    0.9059
  H265     H    0.1610    0.7754    0.9387
  H266     H    0.2247    0.8773    0.9196
  O267     O    0.5000    0.0000    0.8723
  H268     H    0.4369    0.0000    0.8967
  H269     H    0.5631    0.0000    0.8967
  O270     O    0.2500    0.4962    0.5019
  H271     H    0.2055    0.5623    0.5005
  H272     H    0.2945    0.4990    0.4688
  O273     O    0.6878    0.0036    0.9402
  H274     H    0.6887    0.0023    0.9801
  H275     H    0.7316   -0.0596    0.9295
 Me276    Me    0.5000    0.5000    0.2500
  O277     O    0.5000    0.1503    0.0000
 CA278    CA    0.5969    0.2169    0.0000
 CB279    CB    0.5637    0.3399    0.0000
 CB280    CB    0.4363    0.3399    0.0000
 CA281    CA    0.4031    0.2169    0.0000
  O282     O    0.5000    0.1503    0.5000
 CA283    CA    0.5969    0.2169    0.5000
 CB284    CB    0.5637    0.3399    0.5000
 CB285    CB    0.4363    0.3399    0.5000
 CA286    CA    0.4031    0.2169    0.5000
  O287     O    0.0000    0.4003    0.6250
 CA288    CA    0.0969    0.4669    0.6250
 CB289    CB    0.0637    0.5899    0.6250
 CB290    CB   -0.0637    0.5899    0.6250
 CA291    CA   -0.0969    0.4669    0.6250
  O292     O    0.5000    0.6503    0.0000
 CA293    CA    0.5969    0.7169    0.0000
 CB294    CB    0.5637    0.8399    0.0000
 CB295    CB    0.4363    0.8399    0.0000
 CA296    CA    0.4031    0.7169    0.0000
  O297     O    0.2500   -0.0997    0.7500
 CA298    CA    0.3469   -0.0331    0.7500
 CB299    CB    0.3137    0.0899    0.7500
 CB300    CB    0.1863    0.0899    0.7500
 CA301    CA    0.1531   -0.0331    0.7500
  O302     O    0.0000    0.4003    0.1250
 CA303    CA    0.0969    0.4669    0.1250
 CB304    CB    0.0637    0.5899    0.1250
 CB305    CB   -0.0637    0.5899    0.1250
 CA306    CA   -0.0969    0.4669    0.1250

